Circuit: * C:\Users\hicha\OneDrive\Bureau\Draft5.asc

Direct Newton iteration for .op point succeeded.
Heightened Def Con from 0.00100001 to 0.00100001
Heightened Def Con from 0.00100001 to 0.00100001
Heightened Def Con from 0.00500001 to 0.00500001
Heightened Def Con from 0.00500001 to 0.00500001
Heightened Def Con from 0.00900001 to 0.00900001
Heightened Def Con from 0.00900001 to 0.00900001
Heightened Def Con from 0.013 to 0.013
Heightened Def Con from 0.013 to 0.013
Heightened Def Con from 0.017 to 0.017
Heightened Def Con from 0.017 to 0.017

Date: Thu Apr 27 17:56:54 2023
Total elapsed time: 0.076 seconds.

tnom = 27
temp = 27
method = modified trap
totiter = 9037
traniter = 9021
tranpoints = 3322
accept = 2819
rejected = 513
matrix size = 8
fillins = 0
solver = Normal
Avg thread counts: 1.1/1.2/1.2/1.1
Matrix Compiler1: 354 bytes object code size  0.2/0.1/[0.1]
Matrix Compiler2: 624 bytes object code size  0.1/0.2/[0.1]

