Circuit: * C:\Users\hicha\OneDrive\Bureau\Draft4.asc

Direct Newton iteration for .op point succeeded.

Date: Thu Apr 27 14:52:26 2023
Total elapsed time: 0.088 seconds.

tnom = 27
temp = 27
method = modified trap
totiter = 12324
traniter = 12312
tranpoints = 5491
accept = 4531
rejected = 960
matrix size = 13
fillins = 1
solver = Normal
Avg thread counts: 1.1/1.1/1.1/1.1
Matrix Compiler1: 728 bytes object code size  0.2/0.2/[0.1]
Matrix Compiler2: 1.02 KB object code size  0.2/0.2/[0.2]

