Circuit: * C:\Users\hicha\OneDrive\Bureau\Draft9.asc

Direct Newton iteration for .op point succeeded.

Date: Fri Apr 28 10:33:58 2023
Total elapsed time: 0.077 seconds.

tnom = 27
temp = 27
method = modified trap
totiter = 6840
traniter = 6828
tranpoints = 2938
accept = 2558
rejected = 380
matrix size = 8
fillins = 0
solver = Normal
Avg thread counts: 1.1/1.2/1.2/1.1
Matrix Compiler1:      17 opcodes  0.1/[0.1]/0.1
Matrix Compiler2: off
